<?xml version="1.0" encoding="UTF-8"?>

<!-- generated on Wed Feb 26 16:57:17 2020 by Eclipse SUMO netconvert Version 1.4.0
<configuration xmlns:xsi="http://www.w3.org/2001/XMLSchema-instance" xsi:noNamespaceSchemaLocation="http://sumo.dlr.de/xsd/netconvertConfiguration.xsd">

    <input>
        <type-files value="typemap/osmNetconvert.typ.xml"/>
        <osm-files value="map.osm.xml"/>
    </input>

    <output>
        <output-file value="map.net.xml"/>
        <output.street-names value="true"/>
        <output.original-names value="true"/>
    </output>

    <projection>
        <proj.utm value="true"/>
    </projection>

    <processing>
        <geometry.remove value="true"/>
        <roundabouts.guess value="true"/>
    </processing>

    <tls_building>
        <tls.discard-simple value="true"/>
        <tls.join value="true"/>
        <tls.guess-signals value="true"/>
        <tls.default-type value="actuated"/>
    </tls_building>

    <ramp_guessing>
        <ramps.guess value="true"/>
    </ramp_guessing>

    <junctions>
        <junctions.join value="true"/>
        <junctions.corner-detail value="5"/>
    </junctions>

    <report>
        <verbose value="true"/>
        <aggregate-warnings value="5"/>
    </report>

</configuration>
-->

<net version="1.3" junctionCornerDetail="5" limitTurnSpeed="5.50" xmlns:xsi="http://www.w3.org/2001/XMLSchema-instance" xsi:noNamespaceSchemaLocation="http://sumo.dlr.de/xsd/net_file.xsd">

    <location netOffset="-326226.29,-3137447.85" convBoundary="0.00,0.00,51359.25,14977.94" origBoundary="-16.773118,28.352526,-16.250332,28.491592" projParameter="+proj=utm +zone=28 +ellps=WGS84 +datum=WGS84 +units=m +no_defs"/>

    <type id="highway.bridleway" priority="1" numLanes="1" speed="2.78" allow="pedestrian" oneway="1" width="2.00"/>
    <type id="highway.bus_guideway" priority="1" numLanes="1" speed="27.78" allow="bus" oneway="1"/>
    <type id="highway.cycleway" priority="1" numLanes="1" speed="8.33" allow="bicycle" oneway="0" width="1.00"/>
    <type id="highway.footway" priority="1" numLanes="1" speed="2.78" allow="pedestrian" oneway="1" width="2.00"/>
    <type id="highway.ford" priority="1" numLanes="1" speed="2.78" allow="army" oneway="0"/>
    <type id="highway.living_street" priority="2" numLanes="1" speed="2.78" disallow="tram rail_urban rail rail_electric rail_fast ship" oneway="0"/>
    <type id="highway.motorway" priority="14" numLanes="2" speed="39.44" allow="private emergency authority army vip passenger hov taxi bus coach delivery truck trailer motorcycle evehicle custom1 custom2" oneway="1"/>
    <type id="highway.motorway_link" priority="9" numLanes="1" speed="22.22" allow="private emergency authority army vip passenger hov taxi bus coach delivery truck trailer motorcycle evehicle custom1 custom2" oneway="1"/>
    <type id="highway.path" priority="1" numLanes="1" speed="2.78" allow="pedestrian bicycle" oneway="1" width="2.00"/>
    <type id="highway.pedestrian" priority="1" numLanes="1" speed="2.78" allow="pedestrian" oneway="1" width="2.00"/>
    <type id="highway.primary" priority="12" numLanes="2" speed="27.78" disallow="tram rail_urban rail rail_electric rail_fast ship" oneway="0"/>
    <type id="highway.primary_link" priority="7" numLanes="1" speed="22.22" disallow="tram rail_urban rail rail_electric rail_fast ship" oneway="0"/>
    <type id="highway.raceway" priority="15" numLanes="2" speed="83.33" allow="vip" oneway="0"/>
    <type id="highway.residential" priority="3" numLanes="1" speed="13.89" disallow="tram rail_urban rail rail_electric rail_fast ship" oneway="0"/>
    <type id="highway.secondary" priority="11" numLanes="1" speed="27.78" disallow="tram rail_urban rail rail_electric rail_fast ship" oneway="0"/>
    <type id="highway.secondary_link" priority="6" numLanes="1" speed="22.22" disallow="tram rail_urban rail rail_electric rail_fast ship" oneway="0"/>
    <type id="highway.service" priority="1" numLanes="1" speed="5.56" allow="pedestrian delivery bicycle" oneway="0"/>
    <type id="highway.stairs" priority="1" numLanes="1" speed="1.39" allow="pedestrian" oneway="1" width="2.00"/>
    <type id="highway.step" priority="1" numLanes="1" speed="1.39" allow="pedestrian" oneway="1" width="2.00"/>
    <type id="highway.steps" priority="1" numLanes="1" speed="1.39" allow="pedestrian" oneway="1" width="2.00"/>
    <type id="highway.tertiary" priority="10" numLanes="1" speed="22.22" disallow="tram rail_urban rail rail_electric rail_fast ship" oneway="0"/>
    <type id="highway.tertiary_link" priority="5" numLanes="1" speed="22.22" disallow="tram rail_urban rail rail_electric rail_fast ship" oneway="0"/>
    <type id="highway.track" priority="1" numLanes="1" speed="5.56" disallow="tram rail_urban rail rail_electric rail_fast ship" oneway="0"/>
    <type id="highway.trunk" priority="13" numLanes="2" speed="27.78" disallow="pedestrian bicycle tram rail_urban rail rail_electric rail_fast ship" oneway="0"/>
    <type id="highway.trunk_link" priority="8" numLanes="1" speed="22.22" disallow="pedestrian bicycle tram rail_urban rail rail_electric rail_fast ship" oneway="0"/>
    <type id="highway.unclassified" priority="4" numLanes="1" speed="13.89" disallow="tram rail_urban rail rail_electric rail_fast ship" oneway="0"/>
    <type id="highway.unsurfaced" priority="1" numLanes="1" speed="8.33" disallow="tram rail_urban rail rail_electric rail_fast ship" oneway="0"/>
    <type id="railway.highspeed" priority="21" numLanes="1" speed="69.44" allow="rail_fast" oneway="1"/>
    <type id="railway.light_rail" priority="19" numLanes="1" speed="27.78" allow="rail_urban" oneway="1"/>
    <type id="railway.preserved" priority="16" numLanes="1" speed="27.78" allow="rail" oneway="1"/>
    <type id="railway.rail" priority="20" numLanes="1" speed="44.44" allow="rail" oneway="1"/>
    <type id="railway.subway" priority="18" numLanes="1" speed="27.78" allow="rail_urban" oneway="1"/>
    <type id="railway.tram" priority="17" numLanes="1" speed="13.89" allow="tram" oneway="1"/>

    <edge id=":1056604042_0" function="internal">
        <lane id=":1056604042_0_0" index="0" disallow="tram rail_urban rail rail_electric rail_fast ship" speed="22.22" length="8.21" shape="18875.70,4202.32 18873.40,4203.04 18871.94,4203.89 18870.47,4204.74 18868.17,4205.45"/>
    </edge>
    <edge id=":1056604140_0" function="internal">
        <lane id=":1056604140_0_0" index="0" disallow="tram rail_urban rail rail_electric rail_fast ship" speed="22.22" length="8.19" shape="19022.99,4173.68 19020.71,4174.43 19019.27,4175.31 19017.83,4176.20 19015.56,4176.99"/>
        <lane id=":1056604140_0_1" index="1" disallow="tram rail_urban rail rail_electric rail_fast ship" speed="22.22" length="8.19" shape="19022.99,4173.68 19020.59,4173.94 19018.91,4173.75 19017.22,4173.57 19014.83,4173.87"/>
    </edge>
    <edge id=":1056604402_0" function="internal">
        <lane id=":1056604402_0_0" index="0" disallow="tram rail_urban rail rail_electric rail_fast ship" speed="22.22" length="0.10" shape="19262.45,4134.38 19262.45,4134.38"/>
    </edge>
    <edge id=":1056604512_0" function="internal">
        <lane id=":1056604512_0_0" index="0" allow="private emergency authority army vip passenger hov taxi bus coach delivery truck trailer motorcycle evehicle custom1 custom2" speed="33.33" length="8.01" shape="19425.65,4136.68 19428.04,4136.76 19429.69,4136.46 19431.33,4136.19 19433.70,4136.40"/>
        <lane id=":1056604512_0_1" index="1" allow="private emergency authority army vip passenger hov taxi bus coach delivery truck trailer motorcycle evehicle custom1 custom2" speed="33.33" length="8.01" shape="19425.21,4139.85 19427.55,4139.92 19429.16,4139.61 19430.77,4139.35 19433.08,4139.54"/>
    </edge>
    <edge id=":1056604578_0" function="internal">
        <lane id=":1056604578_0_0" index="0" allow="private emergency authority army vip passenger hov taxi bus coach delivery truck trailer motorcycle evehicle custom1 custom2" speed="30.56" length="8.19" shape="19028.53,4162.00 19030.81,4161.21 19032.25,4160.32 19033.69,4159.44 19035.98,4158.69"/>
        <lane id=":1056604578_0_1" index="1" allow="private emergency authority army vip passenger hov taxi bus coach delivery truck trailer motorcycle evehicle custom1 custom2" speed="30.56" length="8.19" shape="19028.53,4162.00 19030.91,4161.70 19032.58,4161.88 19034.26,4162.07 19036.65,4161.82"/>
    </edge>
    <edge id=":1100668122_0" function="internal">
        <lane id=":1100668122_0_0" index="0" disallow="pedestrian bicycle tram rail_urban rail rail_electric rail_fast ship" speed="25.00" length="0.10" shape="3137.74,977.02 3137.82,977.05"/>
    </edge>
    <edge id=":1100668122_1" function="internal">
        <lane id=":1100668122_1_0" index="0" disallow="pedestrian bicycle tram rail_urban rail rail_electric rail_fast ship" speed="25.00" length="0.10" shape="3138.76,973.99 3138.84,974.02"/>
    </edge>
    <edge id=":1147359127_0" function="internal">
        <lane id=":1147359127_0_0" index="0" allow="private emergency authority army vip passenger hov taxi bus coach delivery truck trailer motorcycle evehicle custom1 custom2" speed="27.78" length="7.99" shape="24932.07,5133.66 24929.93,5132.61 24928.31,5132.21 24926.70,5131.77 24924.64,5130.61"/>
        <lane id=":1147359127_0_1" index="1" allow="private emergency authority army vip passenger hov taxi bus coach delivery truck trailer motorcycle evehicle custom1 custom2" speed="27.78" length="7.99" shape="24933.77,5130.94 24931.68,5129.93 24930.08,5129.55 24928.51,5129.13 24926.50,5128.01"/>
    </edge>
    <edge id=":1149001992_0" function="internal">
        <lane id=":1149001992_0_0" index="0" allow="private emergency authority army vip passenger hov taxi bus coach delivery truck trailer motorcycle evehicle custom1 custom2" speed="30.56" length="8.19" shape="24892.83,5089.18 24894.90,5090.37 24896.51,5090.85 24898.13,5091.32 24900.22,5092.48"/>
        <lane id=":1149001992_0_1" index="1" allow="private emergency authority army vip passenger hov taxi bus coach delivery truck trailer motorcycle evehicle custom1 custom2" speed="30.56" length="8.19" shape="24892.83,5089.18 24894.62,5090.78 24895.59,5092.16 24896.58,5093.53 24898.39,5095.10"/>
        <lane id=":1149001992_0_2" index="2" allow="private emergency authority army vip passenger hov taxi bus coach delivery truck trailer motorcycle evehicle custom1 custom2" speed="30.56" length="8.19" shape="24890.95,5091.76 24892.75,5093.38 24893.73,5094.77 24894.73,5096.14 24896.55,5097.73"/>
    </edge>
    <edge id=":1149002136_0" function="internal">
        <lane id=":1149002136_0_0" index="0" allow="private emergency authority army vip passenger hov taxi bus coach delivery truck trailer motorcycle evehicle custom1 custom2" speed="33.33" length="8.12" shape="26489.90,7145.25 26491.56,7146.91 26492.98,7147.76 26494.43,7148.59 26496.19,7150.17"/>
        <lane id=":1149002136_0_1" index="1" allow="private emergency authority army vip passenger hov taxi bus coach delivery truck trailer motorcycle evehicle custom1 custom2" speed="33.33" length="8.12" shape="26487.41,7147.25 26489.10,7148.96 26490.54,7149.83 26492.02,7150.68 26493.80,7152.31"/>
    </edge>
    <edge id=":1152956450_0" function="internal">
        <lane id=":1152956450_0_0" index="0" allow="private emergency authority army vip passenger hov taxi bus coach delivery truck trailer motorcycle evehicle custom1 custom2" speed="36.39" length="0.30" shape="35135.02,13162.15 35135.30,13162.28"/>
        <lane id=":1152956450_0_1" index="1" allow="private emergency authority army vip passenger hov taxi bus coach delivery truck trailer motorcycle evehicle custom1 custom2" speed="36.39" length="0.30" shape="35133.71,13165.07 35133.98,13165.19"/>
    </edge>
    <edge id=":1152956510_0" function="internal">
        <lane id=":1152956510_0_0" index="0" allow="private emergency authority army vip passenger hov taxi bus coach delivery truck trailer motorcycle evehicle custom1 custom2" speed="27.78" length="0.29" shape="34225.00,12906.10 34225.31,12906.05"/>
        <lane id=":1152956510_0_1" index="1" allow="private emergency authority army vip passenger hov taxi bus coach delivery truck trailer motorcycle evehicle custom1 custom2" speed="27.78" length="0.29" shape="34225.54,12909.25 34225.81,12909.21"/>
    </edge>
    <edge id=":1157640667_0" function="internal">
        <lane id=":1157640667_0_0" index="0" allow="private emergency authority army vip passenger hov taxi bus coach delivery truck trailer motorcycle evehicle custom1 custom2" speed="30.56" length="0.26" shape="41196.10,14806.05 41196.30,14805.99"/>
        <lane id=":1157640667_0_1" index="1" allow="private emergency authority army vip passenger hov taxi bus coach delivery truck trailer motorcycle evehicle custom1 custom2" speed="30.56" length="0.26" shape="41197.00,14809.12 41197.29,14809.03"/>
    </edge>
    <edge id=":1157640673_0" function="internal">
        <lane id=":1157640673_0_0" index="0" allow="private emergency authority army vip passenger hov taxi bus coach delivery truck trailer motorcycle evehicle custom1 custom2" speed="33.61" length="0.28" shape="37423.02,14058.14 37423.24,14058.25"/>
        <lane id=":1157640673_0_1" index="1" allow="private emergency authority army vip passenger hov taxi bus coach delivery truck trailer motorcycle evehicle custom1 custom2" speed="33.61" length="0.28" shape="37421.51,14060.96 37421.79,14061.10"/>
    </edge>
    <edge id=":1157659192_0" function="internal">
        <lane id=":1157659192_0_0" index="0" allow="private emergency authority army vip passenger hov taxi bus coach delivery truck trailer motorcycle evehicle custom1 custom2" speed="25.00" length="0.28" shape="34239.68,12918.36 34239.43,12918.40"/>
        <lane id=":1157659192_0_1" index="1" allow="private emergency authority army vip passenger hov taxi bus coach delivery truck trailer motorcycle evehicle custom1 custom2" speed="25.00" length="0.28" shape="34239.20,12915.19 34238.89,12915.24"/>
    </edge>
    <edge id=":1162994671_0" function="internal">
        <lane id=":1162994671_0_0" index="0" allow="private emergency authority army vip passenger hov taxi bus coach delivery truck trailer motorcycle evehicle custom1 custom2" speed="27.78" length="8.18" shape="42014.77,14682.05 42017.18,14681.82 42018.80,14681.30 42020.42,14680.79 42022.83,14680.63"/>
        <lane id=":1162994671_0_1" index="1" allow="private emergency authority army vip passenger hov taxi bus coach delivery truck trailer motorcycle evehicle custom1 custom2" speed="27.78" length="8.18" shape="42014.77,14682.05 42017.15,14682.32 42018.74,14682.90 42020.33,14683.49 42022.71,14683.83"/>
        <lane id=":1162994671_0_2" index="2" allow="private emergency authority army vip passenger hov taxi bus coach delivery truck trailer motorcycle evehicle custom1 custom2" speed="27.78" length="8.18" shape="42014.74,14685.25 42017.10,14685.52 42018.67,14686.09 42020.24,14686.69 42022.60,14687.03"/>
    </edge>
    <edge id=":1163001911_0" function="internal">
        <lane id=":1163001911_0_0" index="0" allow="private emergency authority army vip passenger hov taxi bus coach delivery truck trailer motorcycle evehicle custom1 custom2" speed="33.33" length="8.14" shape="43343.11,14674.37 43340.91,14675.35 43339.55,14676.36 43338.18,14677.34 43335.96,14678.26"/>
        <lane id=":1163001911_0_1" index="1" allow="private emergency authority army vip passenger hov taxi bus coach delivery truck trailer motorcycle evehicle custom1 custom2" speed="33.33" length="8.14" shape="43342.12,14671.33 43339.95,14672.30 43338.60,14673.30 43337.25,14674.28 43335.06,14675.18"/>
    </edge>
    <edge id=":1163001937_0" function="internal">
        <lane id=":1163001937_0_0" index="0" allow="private emergency authority army vip passenger hov taxi bus coach delivery truck trailer motorcycle evehicle custom1 custom2" speed="33.61" length="0.28" shape="44434.34,14043.81 44434.57,14043.55"/>
        <lane id=":1163001937_0_1" index="1" allow="private emergency authority army vip passenger hov taxi bus coach delivery truck trailer motorcycle evehicle custom1 custom2" speed="33.61" length="0.28" shape="44436.74,14045.92 44436.93,14045.71"/>
        <lane id=":1163001937_0_2" index="2" allow="private emergency authority army vip passenger hov taxi bus coach delivery truck trailer motorcycle evehicle custom1 custom2" speed="33.61" length="0.28" shape="44439.14,14048.04 44439.29,14047.87"/>
    </edge>
    <edge id=":1165301882_0" function="internal">
        <lane id=":1165301882_0_0" index="0" allow="private emergency authority army vip passenger hov taxi bus coach delivery truck trailer motorcycle evehicle custom1 custom2" speed="33.33" length="8.15" shape="45303.07,13073.81 45301.67,13075.79 45301.01,13077.35 45300.33,13078.91 45298.87,13080.84"/>
        <lane id=":1165301882_0_1" index="1" allow="private emergency authority army vip passenger hov taxi bus coach delivery truck trailer motorcycle evehicle custom1 custom2" speed="33.33" length="8.15" shape="45300.67,13071.70 45299.28,13073.65 45298.63,13075.21 45297.97,13076.75 45296.53,13078.66"/>
        <lane id=":1165301882_0_2" index="2" allow="private emergency authority army vip passenger hov taxi bus coach delivery truck trailer motorcycle evehicle custom1 custom2" speed="33.33" length="8.15" shape="45298.27,13069.58 45296.90,13071.52 45296.26,13073.06 45295.60,13074.59 45294.19,13076.48"/>
    </edge>
    <edge id=":1166663680_0" function="internal">
        <lane id=":1166663680_0_0" index="0" allow="private emergency authority army vip passenger hov taxi bus coach delivery truck trailer motorcycle evehicle custom1 custom2" speed="33.33" length="8.21" shape="45980.91,12273.60 45982.32,12271.66 45982.98,12270.10 45983.64,12268.54 45985.04,12266.58"/>
        <lane id=":1166663680_0_1" index="1" allow="private emergency authority army vip passenger hov taxi bus coach delivery truck trailer motorcycle evehicle custom1 custom2" speed="33.33" length="8.21" shape="45983.29,12275.74 45984.71,12273.79 45985.37,12272.23 45986.03,12270.67 45987.43,12268.71"/>
        <lane id=":1166663680_0_2" index="2" allow="private emergency authority army vip passenger hov taxi bus coach delivery truck trailer motorcycle evehicle custom1 custom2" speed="33.33" length="8.21" shape="45985.68,12277.88 45987.09,12275.92 45987.75,12274.36 45988.41,12272.80 45989.82,12270.84"/>
    </edge>
    <edge id=":1166663688_0" function="internal">
        <lane id=":1166663688_0_0" index="0" allow="private emergency authority army vip passenger hov taxi bus coach delivery truck trailer motorcycle evehicle custom1 custom2" speed="33.33" length="8.20" shape="45860.50,12405.46 45861.90,12403.48 45862.56,12401.91 45863.22,12400.35 45864.64,12398.39"/>
        <lane id=":1166663688_0_1" index="1" allow="private emergency authority army vip passenger hov taxi bus coach delivery truck trailer motorcycle evehicle custom1 custom2" speed="33.33" length="8.20" shape="45862.90,12407.57 45864.30,12405.60 45864.95,12404.04 45865.61,12402.48 45867.02,12400.53"/>
        <lane id=":1166663688_0_2" index="2" allow="private emergency authority army vip passenger hov taxi bus coach delivery truck trailer motorcycle evehicle custom1 custom2" speed="33.33" length="8.20" shape="45865.30,12409.69 45866.69,12407.73 45867.34,12406.16 45867.99,12404.61 45869.40,12402.66"/>
        <lane id=":1166663688_0_3" index="3" allow="private emergency authority army vip passenger hov taxi bus coach delivery truck trailer motorcycle evehicle custom1 custom2" speed="33.33" length="8.20" shape="45867.70,12411.80 45869.09,12409.85 45869.73,12408.29 45870.38,12406.74 45871.78,12404.80"/>
    </edge>
    <edge id=":1166663733_0" function="internal">
        <lane id=":1166663733_0_0" index="0" allow="private emergency authority army vip passenger hov taxi bus coach delivery truck trailer motorcycle evehicle custom1 custom2" speed="36.39" length="8.63" shape="45590.72,12711.86 45591.96,12709.65 45592.14,12707.75 45592.33,12705.87 45593.59,12703.68"/>
        <lane id=":1166663733_0_1" index="1" allow="private emergency authority army vip passenger hov taxi bus coach delivery truck trailer motorcycle evehicle custom1 custom2" speed="36.39" length="8.63" shape="45593.15,12713.94 45594.38,12711.74 45594.56,12709.85 45594.74,12707.97 45595.99,12705.80"/>
        <lane id=":1166663733_0_2" index="2" allow="private emergency authority army vip passenger hov taxi bus coach delivery truck trailer motorcycle evehicle custom1 custom2" speed="36.39" length="8.63" shape="45595.58,12716.03 45596.80,12713.84 45596.97,12711.95 45597.15,12710.08 45598.40,12707.91"/>
        <lane id=":1166663733_0_3" index="3" allow="private emergency authority army vip passenger hov taxi bus coach delivery truck trailer motorcycle evehicle custom1 custom2" speed="36.39" length="8.63" shape="45595.58,12716.03 45600.80,12710.02"/>
        <lane id=":1166663733_0_4" index="4" allow="private emergency authority army vip passenger hov taxi bus coach delivery truck trailer motorcycle evehicle custom1 custom2" speed="36.39" length="8.63" shape="45595.58,12716.03 45597.55,12714.50 45599.37,12714.07 45601.21,12713.64 45603.20,12712.14"/>
    </edge>
    <edge id=":1166671419_0" function="internal">
        <lane id=":1166671419_0_0" index="0" allow="private emergency authority army vip passenger hov taxi bus coach delivery truck trailer motorcycle evehicle custom1 custom2" speed="36.39" length="0.30" shape="46163.42,12066.14 46163.61,12065.93"/>
        <lane id=":1166671419_0_1" index="1" allow="private emergency authority army vip passenger hov taxi bus coach delivery truck trailer motorcycle evehicle custom1 custom2" speed="36.39" length="0.30" shape="46165.81,12068.26 46166.01,12068.04"/>
        <lane id=":1166671419_0_2" index="2" allow="private emergency authority army vip passenger hov taxi bus coach delivery truck trailer motorcycle evehicle custom1 custom2" speed="36.39" length="0.30" shape="46168.20,12070.39 46168.41,12070.16"/>
    </edge>
    <edge id=":1172528568_0" function="internal">
        <lane id=":1172528568_0_0" index="0" disallow="pedestrian bicycle tram rail_urban rail rail_electric rail_fast ship" speed="20.83" length="6.92" shape="49746.84,10974.20 49748.68,10974.76 49750.04,10974.72 49751.44,10974.57 49753.39,10974.83"/>
        <lane id=":1172528568_0_1" index="1" disallow="pedestrian bicycle tram rail_urban rail rail_electric rail_fast ship" speed="20.83" length="6.92" shape="49745.52,10977.12 49747.50,10977.74 49748.97,10977.74 49750.48,10977.63 49752.58,10977.93"/>
    </edge>
    <edge id=":1172528718_0" function="internal">
        <lane id=":1172528718_0_0" index="0" disallow="pedestrian bicycle tram rail_urban rail rail_electric rail_fast ship" speed="33.61" length="0.30" shape="48919.35,10474.06 48919.58,10474.20"/>
        <lane id=":1172528718_0_1" index="1" disallow="pedestrian bicycle tram rail_urban rail rail_electric rail_fast ship" speed="33.61" length="0.30" shape="48917.69,10476.80 48917.95,10476.95"/>
        <lane id=":1172528718_0_2" index="2" disallow="pedestrian bicycle tram rail_urban rail rail_electric rail_fast ship" speed="33.61" length="0.30" shape="48916.04,10479.54 48916.32,10479.70"/>
    </edge>
    <edge id=":1172528849_0" function="internal">
        <lane id=":1172528849_0_0" index="0" disallow="pedestrian bicycle tram rail_urban rail rail_electric rail_fast ship" speed="27.78" length="8.20" shape="49728.65,10964.27 49730.96,10965.00 49732.66,10965.14 49734.35,10965.29 49736.64,10966.06"/>
        <lane id=":1172528849_0_1" index="1" disallow="pedestrian bicycle tram rail_urban rail rail_electric rail_fast ship" speed="27.78" length="8.20" shape="49728.65,10964.27 49730.75,10965.45 49732.00,10966.60 49733.24,10967.76 49735.32,10968.97"/>
        <lane id=":1172528849_0_2" index="2" disallow="pedestrian bicycle tram rail_urban rail rail_electric rail_fast ship" speed="27.78" length="8.20" shape="49727.39,10967.21 49729.47,10968.38 49730.70,10969.52 49731.93,10970.68 49734.00,10971.89"/>
    </edge>
    <edge id=":1172528851_0" function="internal">
        <lane id=":1172528851_0_0" index="0" disallow="pedestrian bicycle tram rail_urban rail rail_electric rail_fast ship" speed="27.78" length="8.12" shape="49440.07,10788.25 49442.02,10789.56 49443.58,10790.12 49445.16,10790.65 49447.19,10791.87"/>
        <lane id=":1172528851_0_1" index="1" disallow="pedestrian bicycle tram rail_urban rail rail_electric rail_fast ship" speed="27.78" length="8.12" shape="49438.01,10790.70 49440.00,10792.04 49441.59,10792.63 49443.19,10793.18 49445.26,10794.43"/>
    </edge>
    <edge id=":1172664829_0" function="internal">
        <lane id=":1172664829_0_0" index="0" disallow="pedestrian bicycle tram rail_urban rail rail_electric rail_fast ship" speed="27.78" length="9.71" shape="49892.60,11046.23 49889.34,11046.60 49887.10,11047.48 49884.90,11048.08 49881.78,11047.66"/>
        <lane id=":1172664829_0_1" index="1" disallow="pedestrian bicycle tram rail_urban rail rail_electric rail_fast ship" speed="27.78" length="9.71" shape="49892.60,11046.23 49889.62,11046.11 49887.57,11045.90 49885.57,11045.45 49882.71,11044.60"/>
        <lane id=":1172664829_0_2" index="2" disallow="pedestrian bicycle tram rail_urban rail rail_electric rail_fast ship" speed="27.78" length="9.71" shape="49892.70,11043.03 49889.97,11042.93 49888.10,11042.73 49886.26,11042.31 49883.64,11041.54"/>
        <lane id=":1172664829_0_3" index="3" disallow="pedestrian bicycle tram rail_urban rail rail_electric rail_fast ship" speed="27.78" length="9.71" shape="49892.81,11039.83 49890.32,11039.74 49888.62,11039.56 49886.95,11039.18 49884.57,11038.48"/>
    </edge>
    <edge id=":1172664860_0" function="internal">
        <lane id=":1172664860_0_0" index="0" disallow="pedestrian bicycle tram rail_urban rail rail_electric rail_fast ship" speed="30.56" length="0.49" shape="49631.60,10941.95 49630.86,10941.53"/>
        <lane id=":1172664860_0_1" index="1" disallow="pedestrian bicycle tram rail_urban rail rail_electric rail_fast ship" speed="30.56" length="0.49" shape="49633.08,10939.11 49632.55,10938.81"/>
        <lane id=":1172664860_0_2" index="2" disallow="pedestrian bicycle tram rail_urban rail rail_electric rail_fast ship" speed="30.56" length="0.49" shape="49634.55,10936.27 49634.23,10936.09"/>
        <lane id=":1172664860_0_3" index="3" disallow="pedestrian bicycle tram rail_urban rail rail_electric rail_fast ship" speed="30.56" length="0.49" shape="49636.02,10933.43 49635.92,10933.37"/>
    </edge>
    <edge id=":1182684562_0" function="internal">
        <lane id=":1182684562_0_0" index="0" disallow="tram rail_urban rail rail_electric rail_fast ship" speed="11.11" length="21.66" shape="9436.05,3316.47 9435.67,3309.70 9434.08,3304.17 9432.09,3299.62 9430.53,3295.76"/>
    </edge>
    <edge id=":1182684562_1" function="internal">
        <lane id=":1182684562_1_0" index="0" disallow="tram rail_urban rail rail_electric rail_fast ship" speed="11.11" length="22.72" shape="9439.24,3316.69 9438.83,3309.74 9437.22,3303.82 9435.31,3298.84 9434.03,3294.74"/>
    </edge>
    <edge id=":1182684591_0" function="internal">
        <lane id=":1182684591_0_0" index="0" disallow="tram rail_urban rail rail_electric rail_fast ship" speed="25.00" length="0.72" shape="9622.19,3916.03 9621.80,3915.42"/>
    </edge>
    <edge id=":1182684591_1" function="internal">
        <lane id=":1182684591_1_0" index="0" disallow="tram rail_urban rail rail_electric rail_fast ship" speed="22.22" length="0.24" shape="9624.59,3913.85 9624.63,3913.91 9624.65,3913.95 9624.68,3913.99 9624.72,3914.05"/>
    </edge>
    <edge id=":1182684597_0" function="internal">
        <lane id=":1182684597_0_0" index="0" disallow="tram rail_urban rail rail_electric rail_fast ship" speed="19.44" length="0.10" shape="9793.37,4002.69 9793.37,4002.69"/>
    </edge>
    <edge id=":1182684615_0" function="internal">
        <lane id=":1182684615_0_0" index="0" disallow="tram rail_urban rail rail_electric rail_fast ship" speed="16.67" length="8.06" shape="9440.74,3325.46 9441.16,3327.82 9441.37,3329.44 9441.42,3331.08 9441.36,3333.47"/>
    </edge>
    <edge id=":1182684615_1" function="internal">
        <lane id=":1182684615_1_0" index="0" disallow="tram rail_urban rail rail_electric rail_fast ship" speed="13.89" length="8.51" shape="9438.16,3333.36 9437.77,3330.82 9436.76,3329.18 9435.79,3327.55 9435.47,3325.02"/>
        <lane id=":1182684615_1_1" index="1" disallow="tram rail_urban rail rail_electric rail_fast ship" speed="13.89" length="8.51" shape="9438.16,3333.36 9438.66,3325.29"/>
    </edge>
    <edge id=":1182931533_0" function="internal">
        <lane id=":1182931533_0_0" index="0" disallow="tram rail_urban rail rail_electric rail_fast ship" speed="25.00" length="0.10" shape="10260.96,3917.67 10261.03,3917.68"/>
    </edge>
    <edge id=":1182931533_1" function="internal">
        <lane id=":1182931533_1_0" index="0" disallow="tram rail_urban rail rail_electric rail_fast ship" speed="25.00" length="0.10" shape="10261.42,3914.50 10261.49,3914.51"/>
    </edge>
    <edge id=":1183028968_0" function="internal">
        <lane id=":1183028968_0_0" index="0" disallow="tram rail_urban rail rail_electric rail_fast ship" speed="19.44" length="8.80" shape="11195.82,4509.41 11195.71,4506.90 11196.40,4505.14 11197.09,4503.38 11196.96,4500.88"/>
    </edge>
    <edge id=":1183028968_1" function="internal">
        <lane id=":1183028968_1_0" index="0" disallow="tram rail_urban rail rail_electric rail_fast ship" speed="19.44" length="8.01" shape="11200.06,4500.08 11202.03,4507.85"/>
    </edge>
    <edge id=":1183029094_0" function="internal">