<?xml version="1.0" encoding="UTF-8"?>

<!-- generated on Tue Feb 25 11:11:34 2020 by Eclipse SUMO netconvert Version 1.4.0
<configuration xmlns:xsi="http://www.w3.org/2001/XMLSchema-instance" xsi:noNamespaceSchemaLocation="http://sumo.dlr.de/xsd/netconvertConfiguration.xsd">

    <input>
        <type-files value="/Users/jorgegonzalezcabrera/Desktop/TrafficSimulator/Views/typemap/osmNetconvert.typ.xml"/>
        <osm-files value="/Users/jorgegonzalezcabrera/Desktop/TrafficSimulator/Views/map.osm.xml"/>
    </input>

    <output>
        <output-file value="/Users/jorgegonzalezcabrera/Desktop/TrafficSimulator/Views/salida.net.xml"/>
        <output.street-names value="true"/>
        <output.original-names value="true"/>
    </output>

    <projection>
        <proj.utm value="true"/>
    </projection>

    <processing>
        <geometry.remove value="true"/>
        <roundabouts.guess value="true"/>
    </processing>

    <tls_building>
        <tls.discard-simple value="true"/>
        <tls.join value="true"/>
        <tls.guess-signals value="true"/>
        <tls.default-type value="actuated"/>
    </tls_building>

    <ramp_guessing>
        <ramps.guess value="true"/>
    </ramp_guessing>

    <junctions>
        <junctions.join value="true"/>
        <junctions.corner-detail value="5"/>
    </junctions>

    <report>
        <verbose value="true"/>
        <aggregate-warnings value="5"/>
    </report>

</configuration>
-->

<net version="1.3" junctionCornerDetail="5" limitTurnSpeed="5.50" xmlns:xsi="http://www.w3.org/2001/XMLSchema-instance" xsi:noNamespaceSchemaLocation="http://sumo.dlr.de/xsd/net_file.xsd">

    <location netOffset="-344738.62,-3141551.00" convBoundary="0.00,0.00,32504.96,10925.31" origBoundary="-16.584783,28.391188,-16.253814,28.492053" projParameter="+proj=utm +zone=28 +ellps=WGS84 +datum=WGS84 +units=m +no_defs"/>

    <type id="highway.bridleway" priority="1" numLanes="1" speed="2.78" allow="pedestrian" oneway="1" width="2.00"/>
    <type id="highway.bus_guideway" priority="1" numLanes="1" speed="27.78" allow="bus" oneway="1"/>
    <type id="highway.cycleway" priority="1" numLanes="1" speed="8.33" allow="bicycle" oneway="0" width="1.00"/>
    <type id="highway.footway" priority="1" numLanes="1" speed="2.78" allow="pedestrian" oneway="1" width="2.00"/>
    <type id="highway.ford" priority="1" numLanes="1" speed="2.78" allow="army" oneway="0"/>
    <type id="highway.living_street" priority="2" numLanes="1" speed="2.78" disallow="tram rail_urban rail rail_electric rail_fast ship" oneway="0"/>
    <type id="highway.motorway" priority="14" numLanes="2" speed="39.44" allow="private emergency authority army vip passenger hov taxi bus coach delivery truck trailer motorcycle evehicle custom1 custom2" oneway="1"/>
    <type id="highway.motorway_link" priority="9" numLanes="1" speed="22.22" allow="private emergency authority army vip passenger hov taxi bus coach delivery truck trailer motorcycle evehicle custom1 custom2" oneway="1"/>
    <type id="highway.path" priority="1" numLanes="1" speed="2.78" allow="pedestrian bicycle" oneway="1" width="2.00"/>
    <type id="highway.pedestrian" priority="1" numLanes="1" speed="2.78" allow="pedestrian" oneway="1" width="2.00"/>
    <type id="highway.primary" priority="12" numLanes="2" speed="27.78" disallow="tram rail_urban rail rail_electric rail_fast ship" oneway="0"/>
    <type id="highway.primary_link" priority="7" numLanes="1" speed="22.22" disallow="tram rail_urban rail rail_electric rail_fast ship" oneway="0"/>
    <type id="highway.raceway" priority="15" numLanes="2" speed="83.33" allow="vip" oneway="0"/>
    <type id="highway.residential" priority="3" numLanes="1" speed="13.89" disallow="tram rail_urban rail rail_electric rail_fast ship" oneway="0"/>
    <type id="highway.secondary" priority="11" numLanes="1" speed="27.78" disallow="tram rail_urban rail rail_electric rail_fast ship" oneway="0"/>
    <type id="highway.secondary_link" priority="6" numLanes="1" speed="22.22" disallow="tram rail_urban rail rail_electric rail_fast ship" oneway="0"/>
    <type id="highway.service" priority="1" numLanes="1" speed="5.56" allow="pedestrian delivery bicycle" oneway="0"/>
    <type id="highway.stairs" priority="1" numLanes="1" speed="1.39" allow="pedestrian" oneway="1" width="2.00"/>
    <type id="highway.step" priority="1" numLanes="1" speed="1.39" allow="pedestrian" oneway="1" width="2.00"/>
    <type id="highway.steps" priority="1" numLanes="1" speed="1.39" allow="pedestrian" oneway="1" width="2.00"/>
    <type id="highway.tertiary" priority="10" numLanes="1" speed="22.22" disallow="tram rail_urban rail rail_electric rail_fast ship" oneway="0"/>
    <type id="highway.tertiary_link" priority="5" numLanes="1" speed="22.22" disallow="tram rail_urban rail rail_electric rail_fast ship" oneway="0"/>
    <type id="highway.track" priority="1" numLanes="1" speed="5.56" disallow="tram rail_urban rail rail_electric rail_fast ship" oneway="0"/>
    <type id="highway.trunk" priority="13" numLanes="2" speed="27.78" disallow="pedestrian bicycle tram rail_urban rail rail_electric rail_fast ship" oneway="0"/>
    <type id="highway.trunk_link" priority="8" numLanes="1" speed="22.22" disallow="pedestrian bicycle tram rail_urban rail rail_electric rail_fast ship" oneway="0"/>
    <type id="highway.unclassified" priority="4" numLanes="1" speed="13.89" disallow="tram rail_urban rail rail_electric rail_fast ship" oneway="0"/>
    <type id="highway.unsurfaced" priority="1" numLanes="1" speed="8.33" disallow="tram rail_urban rail rail_electric rail_fast ship" oneway="0"/>
    <type id="railway.highspeed" priority="21" numLanes="1" speed="69.44" allow="rail_fast" oneway="1"/>
    <type id="railway.light_rail" priority="19" numLanes="1" speed="27.78" allow="rail_urban" oneway="1"/>
    <type id="railway.preserved" priority="16" numLanes="1" speed="27.78" allow="rail" oneway="1"/>
    <type id="railway.rail" priority="20" numLanes="1" speed="44.44" allow="rail" oneway="1"/>
    <type id="railway.subway" priority="18" numLanes="1" speed="27.78" allow="rail_urban" oneway="1"/>
    <type id="railway.tram" priority="17" numLanes="1" speed="13.89" allow="tram" oneway="1"/>

    <edge id=":1050048424_0" function="internal">
        <lane id=":1050048424_0_0" index="0" allow="private emergency authority army vip passenger hov taxi bus coach delivery truck trailer motorcycle evehicle custom1 custom2" speed="33.33" length="8.16" shape="9841.43,4358.33 9847.10,4364.21"/>
        <lane id=":1050048424_0_1" index="1" allow="private emergency authority army vip passenger hov taxi bus coach delivery truck trailer motorcycle evehicle custom1 custom2" speed="33.33" length="8.16" shape="9839.13,4360.55 9844.79,4366.42"/>
    </edge>
    <edge id=":1050048424_2" function="internal">
        <lane id=":1050048424_2_0" index="0" allow="private emergency authority army vip passenger hov taxi bus coach delivery truck trailer motorcycle evehicle custom1 custom2" speed="27.78" length="8.19" shape="9843.53,4356.30 9849.41,4362.00"/>
    </edge>
    <edge id=":1056604042_0" function="internal">
        <lane id=":1056604042_0_0" index="0" disallow="tram rail_urban rail rail_electric rail_fast ship" speed="22.22" length="8.00" shape="363.69,100.74 355.84,102.30"/>
    </edge>
    <edge id=":1056604140_0" function="internal">
        <lane id=":1056604140_0_0" index="0" disallow="tram rail_urban rail rail_electric rail_fast ship" speed="22.22" length="7.94" shape="511.37,73.76 503.60,75.40"/>
    </edge>
    <edge id=":1056604140_1" function="internal">
        <lane id=":1056604140_1_0" index="0" disallow="tram rail_urban rail rail_electric rail_fast ship" speed="22.22" length="8.00" shape="510.68,70.53 502.87,72.28"/>
    </edge>
    <edge id=":1056604402_0" function="internal">
        <lane id=":1056604402_0_0" index="0" disallow="tram rail_urban rail rail_electric rail_fast ship" speed="22.22" length="0.10" shape="750.12,31.24 750.12,31.24"/>
    </edge>
    <edge id=":1056604512_0" function="internal">
        <lane id=":1056604512_0_0" index="0" allow="private emergency authority army vip passenger hov taxi bus coach delivery truck trailer motorcycle evehicle custom1 custom2" speed="33.33" length="7.80" shape="913.54,31.95 921.32,33.24"/>
        <lane id=":1056604512_0_1" index="1" allow="private emergency authority army vip passenger hov taxi bus coach delivery truck trailer motorcycle evehicle custom1 custom2" speed="33.33" length="7.80" shape="913.10,35.12 920.70,36.38"/>
    </edge>
    <edge id=":1056604578_0" function="internal">
        <lane id=":1056604578_0_0" index="0" allow="private emergency authority army vip passenger hov taxi bus coach delivery truck trailer motorcycle evehicle custom1 custom2" speed="30.56" length="8.19" shape="516.20,58.85 518.47,58.06 519.92,57.17 521.36,56.29 523.65,55.54"/>
        <lane id=":1056604578_0_1" index="1" allow="private emergency authority army vip passenger hov taxi bus coach delivery truck trailer motorcycle evehicle custom1 custom2" speed="30.56" length="8.19" shape="516.20,58.85 518.58,58.55 520.25,58.73 521.93,58.93 524.32,58.67"/>
    </edge>
    <edge id=":1056604673_0" function="internal">
        <lane id=":1056604673_0_0" index="0" allow="pedestrian delivery bicycle" speed="16.67" length="23.85" shape="4941.00,656.22 4947.96,657.93 4954.47,658.45 4960.15,658.39 4964.62,658.42"/>
    </edge>
    <edge id=":1056604673_1" function="internal">
        <lane id=":1056604673_1_0" index="0" allow="private emergency authority army vip passenger hov taxi bus coach delivery truck trailer motorcycle evehicle custom1 custom2" speed="27.78" length="23.90" shape="4941.00,656.22 4947.21,658.17 4952.43,659.35 4957.70,660.37 4964.06,661.83"/>
        <lane id=":1056604673_1_1" index="1" allow="private emergency authority army vip passenger hov taxi bus coach delivery truck trailer motorcycle evehicle custom1 custom2" speed="27.78" length="23.90" shape="4939.92,659.23 4946.18,661.19 4951.49,662.40 4956.85,663.45 4963.25,664.93"/>
    </edge>
    <edge id=":106277752#1-AddedOffRampNode_0" function="internal">
        <lane id=":106277752#1-AddedOffRampNode_0_0" index="0" allow="private emergency authority army vip passenger hov taxi bus coach delivery truck trailer motorcycle evehicle custom1 custom2" speed="27.78" length="8.27" shape="2915.65,262.65 2918.10,262.07 2919.60,260.92 2921.10,259.77 2923.55,259.20"/>
        <lane id=":106277752#1-AddedOffRampNode_0_1" index="1" allow="private emergency authority army vip passenger hov taxi bus coach delivery truck trailer motorcycle evehicle custom1 custom2" speed="27.78" length="8.27" shape="2915.65,262.65 2923.65,262.39"/>
        <lane id=":106277752#1-AddedOffRampNode_0_2" index="2" allow="private emergency authority army vip passenger hov taxi bus coach delivery truck trailer motorcycle evehicle custom1 custom2" speed="27.78" length="8.27" shape="2915.76,265.85 2923.75,265.59"/>
    </edge>
    <edge id=":106277752#1-AddedOnRampNode_0" function="internal">
        <lane id=":106277752#1-AddedOnRampNode_0_0" index="0" allow="private emergency authority army vip passenger hov taxi bus coach delivery truck trailer motorcycle evehicle custom1 custom2" speed="27.78" length="8.00" shape="2225.68,312.42 2233.16,315.27"/>
        <lane id=":106277752#1-AddedOnRampNode_0_1" index="1" allow="private emergency authority army vip passenger hov taxi bus coach delivery truck trailer motorcycle evehicle custom1 custom2" speed="27.78" length="8.00" shape="2224.54,315.41 2232.02,318.26"/>
    </edge>
    <edge id=":106277752#3-AddedOffRampNode_0" function="internal">
        <lane id=":106277752#3-AddedOffRampNode_0_0" index="0" allow="private emergency authority army vip passenger hov taxi bus coach delivery truck trailer motorcycle evehicle custom1 custom2" speed="27.78" length="8.29" shape="4063.06,661.81 4065.48,661.10 4066.91,659.86 4068.33,658.58 4070.74,657.75"/>
        <lane id=":106277752#3-AddedOffRampNode_0_1" index="1" allow="private emergency authority army vip passenger hov taxi bus coach delivery truck trailer motorcycle evehicle custom1 custom2" speed="27.78" length="8.29" shape="4063.06,661.81 4071.01,660.94"/>
        <lane id=":106277752#3-AddedOffRampNode_0_2" index="2" allow="private emergency authority army vip passenger hov taxi bus coach delivery truck trailer motorcycle evehicle custom1 custom2" speed="27.78" length="8.29" shape="4063.34,665.00 4071.29,664.13"/>
    </edge>
    <edge id=":106277752#3-AddedOnRampNode_0" function="internal">
        <lane id=":106277752#3-AddedOnRampNode_0_0" index="0" allow="private emergency authority army vip passenger hov taxi bus coach delivery truck trailer motorcycle evehicle custom1 custom2" speed="27.78" length="8.00" shape="3645.28,636.64 3652.99,638.75"/>
        <lane id=":106277752#3-AddedOnRampNode_0_1" index="1" allow="private emergency authority army vip passenger hov taxi bus coach delivery truck trailer motorcycle evehicle custom1 custom2" speed="27.78" length="8.00" shape="3644.38,639.71 3652.09,641.83"/>
    </edge>
    <edge id=":1062779230_0" function="internal">
        <lane id=":1062779230_0_0" index="0" allow="pedestrian delivery bicycle" speed="3.65" length="4.67" shape="110.09,217.80 108.91,218.63 108.02,218.72 107.42,218.06 107.10,216.65"/>
    </edge>
    <edge id=":106938485#1-AddedOffRampNode_0" function="internal">
        <lane id=":106938485#1-AddedOffRampNode_0_0" index="0" allow="private emergency authority army vip passenger hov taxi bus coach delivery truck trailer motorcycle evehicle custom1 custom2" speed="27.78" length="8.27" shape="5281.27,678.06 5283.73,677.57 5285.28,676.48 5286.82,675.38 5289.28,674.89"/>
        <lane id=":106938485#1-AddedOffRampNode_0_1" index="1" allow="private emergency authority army vip passenger hov taxi bus coach delivery truck trailer motorcycle evehicle custom1 custom2" speed="27.78" length="8.27" shape="5281.27,678.06 5289.27,678.09"/>
        <lane id=":106938485#1-AddedOffRampNode_0_2" index="2" allow="private emergency authority army vip passenger hov taxi bus coach delivery truck trailer motorcycle evehicle custom1 custom2" speed="27.78" length="8.27" shape="5281.26,681.26 5289.26,681.29"/>
    </edge>
    <edge id=":106938487#2-AddedOffRampNode_0" function="internal">
        <lane id=":106938487#2-AddedOffRampNode_0_0" index="0" allow="private emergency authority army vip passenger hov taxi bus coach delivery truck trailer motorcycle evehicle custom1 custom2" speed="33.33" length="8.27" shape="9295.83,3929.46 9293.37,3928.98 9291.53,3929.40 9289.68,3929.83 9287.22,3929.34"/>
        <lane id=":106938487#2-AddedOffRampNode_0_1" index="1" allow="private emergency authority army vip passenger hov taxi bus coach delivery truck trailer motorcycle evehicle custom1 custom2" speed="33.33" length="8.27" shape="9295.83,3929.46 9288.45,3926.39"/>
        <lane id=":106938487#2-AddedOffRampNode_0_2" index="2" allow="private emergency authority army vip passenger hov taxi bus coach delivery truck trailer motorcycle evehicle custom1 custom2" speed="33.33" length="8.27" shape="9297.06,3926.51 9289.68,3923.43"/>
    </edge>
    <edge id=":106938487#2-AddedOnRampNode_0" function="internal">
        <lane id=":106938487#2-AddedOnRampNode_0_0" index="0" allow="private emergency authority army vip passenger hov taxi bus coach delivery truck trailer motorcycle evehicle custom1 custom2" speed="33.33" length="8.00" shape="9547.60,4081.29 9541.45,4076.18"/>
        <lane id=":106938487#2-AddedOnRampNode_0_1" index="1" allow="private emergency authority army vip passenger hov taxi bus coach delivery truck trailer motorcycle evehicle custom1 custom2" speed="33.33" length="8.00" shape="9549.66,4078.84 9543.50,4073.73"/>
    </edge>
    <edge id=":1106701372_0" function="internal">
        <lane id=":1106701372_0_0" index="0" allow="pedestrian delivery bicycle" speed="3.65" length="4.67" shape="6767.18,1238.64 6766.52,1237.36 6766.56,1236.47 6767.30,1235.96 6768.73,1235.85"/>
    </edge>
    <edge id=":1141519204_0" function="internal">
        <lane id=":1141519204_0_0" index="0" allow="private emergency authority army vip passenger hov taxi bus coach delivery truck trailer motorcycle evehicle custom1 custom2" speed="27.78" length="8.66" shape="28763.89,6741.24 28762.32,6743.28 28761.20,6744.64 28760.02,6745.94 28758.25,6747.80"/>
    </edge>
    <edge id=":1141519204_1" function="internal">
        <lane id=":1141519204_1_0" index="0" allow="private emergency authority army vip passenger hov taxi bus coach delivery truck trailer motorcycle evehicle custom1 custom2" speed="33.33" length="7.79" shape="28761.34,6739.30 28756.07,6745.72"/>
        <lane id=":1141519204_1_1" index="1" allow="private emergency authority army vip passenger hov taxi bus coach delivery truck trailer motorcycle evehicle custom1 custom2" speed="33.33" length="7.79" shape="28758.80,6737.36 28753.75,6743.51"/>
        <lane id=":1141519204_1_2" index="2" allow="private emergency authority army vip passenger hov taxi bus coach delivery truck trailer motorcycle evehicle custom1 custom2" speed="33.33" length="7.79" shape="28756.26,6735.41 28751.44,6741.30"/>
        <lane id=":1141519204_1_3" index="3" allow="private emergency authority army vip passenger hov taxi bus coach delivery truck trailer motorcycle evehicle custom1 custom2" speed="33.33" length="7.79" shape="28753.72,6733.47 28749.12,6739.09"/>
    </edge>
    <edge id=":1147358935_0" function="internal">
        <lane id=":1147358935_0_0" index="0" allow="private emergency authority army vip passenger hov taxi bus coach delivery truck trailer motorcycle evehicle custom1 custom2" speed="22.22" length="8.14" shape="9840.89,4382.98 9839.18,4381.28 9837.98,4380.15 9836.73,4379.06 9834.87,4377.51"/>
    </edge>
    <edge id=":1147358935_1" function="internal">
        <lane id=":1147358935_1_0" index="0" allow="private emergency authority army vip passenger hov taxi bus coach delivery truck trailer motorcycle evehicle custom1 custom2" speed="33.33" length="8.15" shape="9843.15,4380.72 9837.37,4374.97"/>
        <lane id=":1147358935_1_1" index="1" allow="private emergency authority army vip passenger hov taxi bus coach delivery truck trailer motorcycle evehicle custom1 custom2" speed="33.33" length="8.15" shape="9845.41,4378.45 9839.62,4372.70"/>
    </edge>
    <edge id=":1147359015_0" function="internal">
        <lane id=":1147359015_0_0" index="0" allow="private emergency authority army vip passenger hov taxi bus coach delivery truck trailer motorcycle evehicle custom1 custom2" speed="25.00" length="8.02" shape="5380.44,696.11 5372.42,696.33"/>
    </edge>
    <edge id=":1147359015_1" function="internal">
        <lane id=":1147359015_1_0" index="0" allow="private emergency authority army vip passenger hov taxi bus coach delivery truck trailer motorcycle evehicle custom1 custom2" speed="27.78" length="7.97" shape="5380.33,692.92 5372.35,693.05"/>
        <lane id=":1147359015_1_1" index="1" allow="private emergency authority army vip passenger hov taxi bus coach delivery truck trailer motorcycle evehicle custom1 custom2" speed="27.78" length="7.97" shape="5380.23,689.72 5372.28,689.85"/>
    </edge>
    <edge id=":1147359016_0" function="internal">
        <lane id=":1147359016_0_0" index="0" allow="private emergency authority army vip passenger hov taxi bus coach delivery truck trailer motorcycle evehicle custom1 custom2" speed="27.78" length="8.09" shape="8983.77,3856.07 8975.78,3854.79"/>
    </edge>
    <edge id=":1147359016_1" function="internal">
        <lane id=":1147359016_1_0" index="0" allow="private emergency authority army vip passenger hov taxi bus coach delivery truck trailer motorcycle evehicle custom1 custom2" speed="33.33" length="8.07" shape="8984.21,3852.64 8976.20,3851.61"/>
        <lane id=":1147359016_1_1" index="1" allow="private emergency authority army vip passenger hov taxi bus coach delivery truck trailer motorcycle evehicle custom1 custom2" speed="33.33" length="8.07" shape="8984.61,3849.47 8976.62,3848.44"/>
    </edge>
    <edge id=":1147359023_0" function="internal">
        <lane id=":1147359023_0_0" index="0" allow="private emergency authority army vip passenger hov taxi bus coach delivery truck trailer motorcycle evehicle custom1 custom2" speed="25.00" length="7.86" shape="5788.94,676.06 5781.11,675.42"/>
    </edge>
    <edge id=":1147359023_1" function="internal">
        <lane id=":1147359023_1_0" index="0" allow="private emergency authority army vip passenger hov taxi bus coach delivery truck trailer motorcycle evehicle custom1 custom2" speed="27.78" length="8.00" shape="5789.24,672.86 5781.31,672.23"/>
        <lane id=":1147359023_1_1" index="1" allow="private emergency authority army vip passenger hov taxi bus coach delivery truck trailer motorcycle evehicle custom1 custom2" speed="27.78" length="8.00" shape="5789.54,669.67 5781.52,669.04"/>
    </edge>
    <edge id=":1147359082_0" function="internal">
        <lane id=":1147359082_0_0" index="0" allow="private emergency authority army vip passenger hov taxi bus coach delivery truck trailer motorcycle evehicle custom1 custom2" speed="25.00" length="8.02" shape="8118.70,3244.89 8113.67,3238.64"/>
    </edge>
    <edge id=":1147359082_1" function="internal">
        <lane id=":1147359082_1_0" index="0" allow="private emergency authority army vip passenger hov taxi bus coach delivery truck trailer motorcycle evehicle custom1 custom2" speed="33.33" length="7.99" shape="8121.19,3242.87 8116.16,3236.64"/>
        <lane id=":1147359082_1_1" index="1" allow="private emergency authority army vip passenger hov taxi bus coach delivery truck trailer motorcycle evehicle custom1 custom2" speed="33.33" length="7.99" shape="8123.67,3240.85 8118.66,3234.64"/>
    </edge>
    <edge id=":1147359089_0" function="internal">
        <lane id=":1147359089_0_0" index="0" allow="private emergency authority army vip passenger hov taxi bus coach delivery truck trailer motorcycle evehicle custom1 custom2" speed="27.78" length="8.03" shape="6639.57,1165.49 6632.62,1161.46"/>
    </edge>
    <edge id=":1147359089_1" function="internal">
        <lane id=":1147359089_1_0" index="0" allow="private emergency authority army vip passenger hov taxi bus coach delivery truck trailer motorcycle evehicle custom1 custom2" speed="33.33" length="7.99" shape="6641.18,1162.56 6634.18,1158.67"/>
        <lane id=":1147359089_1_1" index="1" allow="private emergency authority army vip passenger hov taxi bus coach delivery truck trailer motorcycle evehicle custom1 custom2" speed="33.33" length="7.99" shape="6642.72,1159.76 6635.75,1155.88"/>
    </edge>
    <edge id=":1147359103_0" function="internal">
        <lane id=":1147359103_0_0" index="0" allow="private emergency authority army vip passenger hov taxi bus coach delivery truck trailer motorcycle evehicle custom1 custom2" speed="25.00" length="8.11" shape="5060.65,695.10 5052.58,694.38"/>
    </edge>
    <edge id=":1147359103_1" function="internal">
        <lane id=":1147359103_1_0" index="0" allow="private emergency authority army vip passenger hov taxi bus coach delivery truck trailer motorcycle evehicle custom1 custom2" speed="27.78" length="7.84" shape="5060.77,691.67 5052.85,691.19"/>
        <lane id=":1147359103_1_1" index="1" allow="private emergency authority army vip passenger hov taxi bus coach delivery truck trailer motorcycle evehicle custom1 custom2" speed="27.78" length="7.84" shape="5060.87,688.47 5053.13,688.00"/>
    </edge>
    <edge id=":1147359106_0" function="internal">
        <lane id=":1147359106_0_0" index="0" allow="pedestrian delivery bicycle" speed="10.23" length="1.23" shape="6852.12,1280.15 6851.79,1280.00 6851.55,1279.97 6851.29,1279.98 6850.92,1279.93"/>
    </edge>
    <edge id=":1147359106_1" function="internal">
        <lane id=":1147359106_1_0" index="0" allow="private emergency authority army vip passenger hov taxi bus coach delivery truck trailer motorcycle evehicle custom1 custom2" speed="33.33" length="1.79" shape="6852.12,1280.15 6851.02,1279.53"/>
        <lane id=":1147359106_1_1" index="1" allow="private emergency authority army vip passenger hov taxi bus coach delivery truck trailer motorcycle evehicle custom1 custom2" speed="33.33" length="1.79" shape="6853.77,1277.41 6851.75,1276.27"/>
    </edge>
    <edge id=":1147359106_3" function="internal">
        <lane id=":1147359106_3_0" index="0" allow="private emergency authority army vip passenger hov taxi bus coach delivery truck trailer motorcycle evehicle custom1 custom2" speed="4.99" length="9.63" shape="6851.63,1276.81 6848.29,1276.27 6847.07,1276.54 6847.98,1277.62 6851.02,1279.53"/>
    </edge>
    <edge id=":1147359106_4" function="internal">
        <lane id=":1147359106_4_0" index="0" allow="pedestrian delivery bicycle" speed="3.65" length="4.67" shape="6851.63,1276.81 6852.62,1277.86 6852.84,1278.73 6852.27,1279.42 6850.92,1279.93"/>
    </edge>
    <edge id=":1147359127_0" function="internal">
        <lane id=":1147359127_0_0" index="0" allow="private emergency authority army vip passenger hov taxi bus coach delivery truck trailer motorcycle evehicle custom1 custom2" speed="25.00" length="8.03" shape="6417.26,1034.62 6410.53,1030.25"/>
    </edge>
    <edge id=":1147359127_1" function="internal">
        <lane id=":1147359127_1_0" index="0" allow="private emergency authority army vip passenger hov taxi bus coach delivery truck trailer motorcycle evehicle custom1 custom2" speed="27.78" length="7.86" shape="6418.96,1031.91 6412.37,1027.51"/>
        <lane id=":1147359127_1_1" index="1" allow="private emergency authority army vip passenger hov taxi bus coach delivery truck trailer motorcycle evehicle custom1 custom2" speed="27.78" length="7.86" shape="6420.66,1029.20 6414.16,1024.86"/>
    </edge>
    <edge id=":1149001899_0" function="internal">
        <lane id=":1149001899_0_0" index="0" allow="private emergency authority army vip passenger hov taxi bus coach delivery truck trailer motorcycle evehicle custom1 custom2" speed="25.00" length="8.24" shape="5785.70,653.72 5793.90,654.53"/>
    </edge>
    <edge id=":1149001899_1" function="internal">
        <lane id=":1149001899_1_0" index="0" allow="private emergency authority army vip passenger hov taxi bus coach delivery truck trailer motorcycle evehicle custom1 custom2" speed="27.78" length="7.88" shape="5785.51,656.91 5793.48,657.57"/>
        <lane id=":1149001899_1_1" index="1" allow="private emergency authority army vip passenger hov taxi bus coach delivery truck trailer motorcycle evehicle custom1 custom2" speed="27.78" length="7.88" shape="5785.32,660.11 5793.05,660.74"/>
    </edge>
    <edge id=":1149001959_0" function="internal">
        <lane id=":1149001959_0_0" index="0" allow="private emergency authority army vip passenger hov taxi bus coach delivery truck trailer motorcycle evehicle custom1 custom2" speed="16.17" length="10.14" shape="5183.62,673.92 5186.22,675.49 5188.00,676.69 5189.89,677.46 5192.80,677.75"/>
    </edge>
    <edge id=":1149001959_1" function="internal">
        <lane id=":1149001959_1_0" index="0" allow="private emergency authority army vip passenger hov taxi bus coach delivery truck trailer motorcycle evehicle custom1 custom2" speed="27.78" length="10.12" shape="5182.69,677.62 5192.80,677.75"/>
        <lane id=":1149001959_1_1" index="1" allow="private emergency authority army vip passenger hov taxi bus coach delivery truck trailer motorcycle evehicle custom1 custom2" speed="27.78" length="10.12" shape="5182.66,680.82 5192.79,680.95"/>
    </edge>
    <edge id=":1149001990_0" function="internal">
        <lane id=":1149001990_0_0" index="0" allow="private emergency authority army vip passenger hov taxi bus coach delivery truck trailer motorcycle evehicle custom1 custom2" speed="27.78" length="7.94" shape="8087.46,3170.93 8088.69,3172.94 8089.57,3174.30 8090.53,3175.60 8092.00,3177.44"/>
    </edge>
    <edge id=":1149001990_1" function="internal">
        <lane id=":1149001990_1_0" index="0" allow="private emergency authority army vip passenger hov taxi bus coach delivery truck trailer motorcycle evehicle custom1 custom2" speed="33.33" length="7.97" shape="8084.53,3173.24 8089.51,3179.45"/>
        <lane id=":1149001990_1_1" index="1" allow="private emergency authority army vip passenger hov taxi bus coach delivery truck trailer motorcycle evehicle custom1 custom2" speed="33.33" length="7.97" shape="8082.02,3175.23 8087.02,3181.46"/>
    </edge>
    <edge id=":1149001992_0" function="internal">
        <lane id=":1149001992_0_0" index="0" allow="private emergency authority army vip passenger hov taxi bus coach delivery truck trailer motorcycle evehicle custom1 custom2" speed="27.78" length="7.91" shape="6382.41,983.38 6388.81,988.03"/>
    </edge>
    <edge id=":1149001992_1" function="internal">
        <lane id=":1149001992_1_0" index="0" allow="private emergency authority army vip passenger hov taxi bus coach delivery truck trailer motorcycle evehicle custom1 custom2" speed="30.56" length="8.00" shape="6380.48,986.02 6386.97,990.65"/>
        <lane id=":1149001992_1_1" index="1" allow="private emergency authority army vip passenger hov taxi bus coach delivery truck trailer motorcycle evehicle custom1 custom2" speed="30.56" length="8.00" shape="6378.60,988.60 6385.14,993.27"/>
    </edge>
    <edge id=":1149002028_0" function="internal">
        <lane id=":1149002028_0_0" index="0" allow="private emergency authority army vip passenger hov taxi bus coach delivery truck trailer motorcycle evehicle custom1 custom2" speed="27.78" length="8.09" shape="6810.93,1235.35 6817.81,1239.61"/>
    </edge>
    <edge id=":1149002028_1" function="internal">