<?xml version="1.0" encoding="UTF-8"?>

<!-- generated on Tue Feb 25 17:28:43 2020 by Eclipse SUMO netconvert Version 1.4.0
<configuration xmlns:xsi="http://www.w3.org/2001/XMLSchema-instance" xsi:noNamespaceSchemaLocation="http://sumo.dlr.de/xsd/netconvertConfiguration.xsd">

    <input>
        <type-files value="/Users/jorgegonzalezcabrera/Desktop/TrafficSimulator/Views/typemap/osmNetconvert.typ.xml"/>
        <osm-files value="/Users/jorgegonzalezcabrera/Desktop/TrafficSimulator/Views/map.osm.xml"/>
    </input>

    <output>
        <output-file value="/Users/jorgegonzalezcabrera/Desktop/TrafficSimulator/Views/salida.net.xml"/>
        <output.street-names value="true"/>
        <output.original-names value="true"/>
    </output>

    <projection>
        <proj.utm value="true"/>
    </projection>

    <processing>
        <geometry.remove value="true"/>
        <roundabouts.guess value="true"/>
    </processing>

    <tls_building>
        <tls.discard-simple value="true"/>
        <tls.join value="true"/>
        <tls.guess-signals value="true"/>
        <tls.default-type value="actuated"/>
    </tls_building>

    <ramp_guessing>
        <ramps.guess value="true"/>
    </ramp_guessing>

    <junctions>
        <junctions.join value="true"/>
        <junctions.corner-detail value="5"/>
    </junctions>

    <report>
        <verbose value="true"/>
        <aggregate-warnings value="5"/>
    </report>

</configuration>
-->

<net version="1.3" junctionCornerDetail="5" limitTurnSpeed="5.50" xmlns:xsi="http://www.w3.org/2001/XMLSchema-instance" xsi:noNamespaceSchemaLocation="http://sumo.dlr.de/xsd/net_file.xsd">

    <location netOffset="837174.16,-3216794.91" convBoundary="0.00,0.00,1383308.72,1566392.16" origBoundary="-16.579452,28.391401,-2.432145,43.200052" projParameter="+proj=utm +zone=30 +ellps=WGS84 +datum=WGS84 +units=m +no_defs"/>

    <type id="highway.bridleway" priority="1" numLanes="1" speed="2.78" allow="pedestrian" oneway="1" width="2.00"/>
    <type id="highway.bus_guideway" priority="1" numLanes="1" speed="27.78" allow="bus" oneway="1"/>
    <type id="highway.cycleway" priority="1" numLanes="1" speed="8.33" allow="bicycle" oneway="0" width="1.00"/>
    <type id="highway.footway" priority="1" numLanes="1" speed="2.78" allow="pedestrian" oneway="1" width="2.00"/>
    <type id="highway.ford" priority="1" numLanes="1" speed="2.78" allow="army" oneway="0"/>
    <type id="highway.living_street" priority="2" numLanes="1" speed="2.78" disallow="tram rail_urban rail rail_electric rail_fast ship" oneway="0"/>
    <type id="highway.motorway" priority="14" numLanes="2" speed="39.44" allow="private emergency authority army vip passenger hov taxi bus coach delivery truck trailer motorcycle evehicle custom1 custom2" oneway="1"/>
    <type id="highway.motorway_link" priority="9" numLanes="1" speed="22.22" allow="private emergency authority army vip passenger hov taxi bus coach delivery truck trailer motorcycle evehicle custom1 custom2" oneway="1"/>
    <type id="highway.path" priority="1" numLanes="1" speed="2.78" allow="pedestrian bicycle" oneway="1" width="2.00"/>
    <type id="highway.pedestrian" priority="1" numLanes="1" speed="2.78" allow="pedestrian" oneway="1" width="2.00"/>
    <type id="highway.primary" priority="12" numLanes="2" speed="27.78" disallow="tram rail_urban rail rail_electric rail_fast ship" oneway="0"/>
    <type id="highway.primary_link" priority="7" numLanes="1" speed="22.22" disallow="tram rail_urban rail rail_electric rail_fast ship" oneway="0"/>
    <type id="highway.raceway" priority="15" numLanes="2" speed="83.33" allow="vip" oneway="0"/>
    <type id="highway.residential" priority="3" numLanes="1" speed="13.89" disallow="tram rail_urban rail rail_electric rail_fast ship" oneway="0"/>
    <type id="highway.secondary" priority="11" numLanes="1" speed="27.78" disallow="tram rail_urban rail rail_electric rail_fast ship" oneway="0"/>
    <type id="highway.secondary_link" priority="6" numLanes="1" speed="22.22" disallow="tram rail_urban rail rail_electric rail_fast ship" oneway="0"/>
    <type id="highway.service" priority="1" numLanes="1" speed="5.56" allow="pedestrian delivery bicycle" oneway="0"/>
    <type id="highway.stairs" priority="1" numLanes="1" speed="1.39" allow="pedestrian" oneway="1" width="2.00"/>
    <type id="highway.step" priority="1" numLanes="1" speed="1.39" allow="pedestrian" oneway="1" width="2.00"/>
    <type id="highway.steps" priority="1" numLanes="1" speed="1.39" allow="pedestrian" oneway="1" width="2.00"/>
    <type id="highway.tertiary" priority="10" numLanes="1" speed="22.22" disallow="tram rail_urban rail rail_electric rail_fast ship" oneway="0"/>
    <type id="highway.tertiary_link" priority="5" numLanes="1" speed="22.22" disallow="tram rail_urban rail rail_electric rail_fast ship" oneway="0"/>
    <type id="highway.track" priority="1" numLanes="1" speed="5.56" disallow="tram rail_urban rail rail_electric rail_fast ship" oneway="0"/>
    <type id="highway.trunk" priority="13" numLanes="2" speed="27.78" disallow="pedestrian bicycle tram rail_urban rail rail_electric rail_fast ship" oneway="0"/>
    <type id="highway.trunk_link" priority="8" numLanes="1" speed="22.22" disallow="pedestrian bicycle tram rail_urban rail rail_electric rail_fast ship" oneway="0"/>
    <type id="highway.unclassified" priority="4" numLanes="1" speed="13.89" disallow="tram rail_urban rail rail_electric rail_fast ship" oneway="0"/>
    <type id="highway.unsurfaced" priority="1" numLanes="1" speed="8.33" disallow="tram rail_urban rail rail_electric rail_fast ship" oneway="0"/>
    <type id="railway.highspeed" priority="21" numLanes="1" speed="69.44" allow="rail_fast" oneway="1"/>
    <type id="railway.light_rail" priority="19" numLanes="1" speed="27.78" allow="rail_urban" oneway="1"/>
    <type id="railway.preserved" priority="16" numLanes="1" speed="27.78" allow="rail" oneway="1"/>
    <type id="railway.rail" priority="20" numLanes="1" speed="44.44" allow="rail" oneway="1"/>
    <type id="railway.subway" priority="18" numLanes="1" speed="27.78" allow="rail_urban" oneway="1"/>
    <type id="railway.tram" priority="17" numLanes="1" speed="13.89" allow="tram" oneway="1"/>

    <edge id=":1056604512_0" function="internal">
        <lane id=":1056604512_0_0" index="0" allow="private emergency authority army vip passenger hov taxi bus coach delivery truck trailer motorcycle evehicle custom1 custom2" speed="33.33" length="8.01" shape="397.34,3.26 399.71,3.10 401.33,2.63 402.94,2.21 405.31,2.17"/>
        <lane id=":1056604512_0_1" index="1" allow="private emergency authority army vip passenger hov taxi bus coach delivery truck trailer motorcycle evehicle custom1 custom2" speed="33.33" length="8.01" shape="397.22,6.46 399.55,6.30 401.12,5.83 402.70,5.40 405.01,5.36"/>
    </edge>
    <edge id=":1147359127_0" function="internal">
        <lane id=":1147359127_0_0" index="0" allow="private emergency authority army vip passenger hov taxi bus coach delivery truck trailer motorcycle evehicle custom1 custom2" speed="27.78" length="7.99" shape="6097.56,447.86 6095.33,447.04 6093.66,446.80 6092.03,446.53 6089.86,445.59"/>
        <lane id=":1147359127_0_1" index="1" allow="private emergency authority army vip passenger hov taxi bus coach delivery truck trailer motorcycle evehicle custom1 custom2" speed="27.78" length="7.99" shape="6098.97,444.99 6096.79,444.19 6095.17,443.98 6093.56,443.72 6091.44,442.81"/>
    </edge>
    <edge id=":1149001992_0" function="internal">
        <lane id=":1149001992_0_0" index="0" allow="private emergency authority army vip passenger hov taxi bus coach delivery truck trailer motorcycle evehicle custom1 custom2" speed="30.56" length="8.19" shape="6053.21,406.82 6055.39,407.80 6057.04,408.11 6058.70,408.42 6060.90,409.36"/>
        <lane id=":1149001992_0_1" index="1" allow="private emergency authority army vip passenger hov taxi bus coach delivery truck trailer motorcycle evehicle custom1 custom2" speed="30.56" length="8.19" shape="6053.21,406.82 6055.15,408.23 6056.26,409.51 6057.38,410.77 6059.34,412.15"/>
        <lane id=":1149001992_0_2" index="2" allow="private emergency authority army vip passenger hov taxi bus coach delivery truck trailer motorcycle evehicle custom1 custom2" speed="30.56" length="8.19" shape="6051.60,409.58 6053.55,411.01 6054.67,412.29 6055.80,413.56 6057.78,414.95"/>
    </edge>
    <edge id=":1149002136_0" function="internal">
        <lane id=":1149002136_0_0" index="0" allow="private emergency authority army vip passenger hov taxi bus coach delivery truck trailer motorcycle evehicle custom1 custom2" speed="33.33" length="8.12" shape="7888.92,2331.60 7890.75,2333.09 7892.24,2333.79 7893.77,2334.47 7895.67,2335.87"/>
        <lane id=":1149002136_0_1" index="1" allow="private emergency authority army vip passenger hov taxi bus coach delivery truck trailer motorcycle evehicle custom1 custom2" speed="33.33" length="8.12" shape="7886.65,2333.85 7888.51,2335.37 7890.03,2336.10 7891.58,2336.80 7893.52,2338.23"/>
    </edge>
    <edge id=":1152956450_0" function="internal">
        <lane id=":1152956450_0_0" index="0" allow="private emergency authority army vip passenger hov taxi bus coach delivery truck trailer motorcycle evehicle custom1 custom2" speed="36.39" length="0.30" shape="17296.50,7552.20 17296.79,7552.30"/>
        <lane id=":1152956450_0_1" index="1" allow="private emergency authority army vip passenger hov taxi bus coach delivery truck trailer motorcycle evehicle custom1 custom2" speed="36.39" length="0.30" shape="17295.48,7555.24 17295.76,7555.33"/>
    </edge>
    <edge id=":1152956510_0" function="internal">
        <lane id=":1152956510_0_0" index="0" allow="private emergency authority army vip passenger hov taxi bus coach delivery truck trailer motorcycle evehicle custom1 custom2" speed="27.78" length="0.29" shape="16345.35,7386.18 16345.65,7386.10"/>
        <lane id=":1152956510_0_1" index="1" allow="private emergency authority army vip passenger hov taxi bus coach delivery truck trailer motorcycle evehicle custom1 custom2" speed="27.78" length="0.29" shape="16346.21,7389.27 16346.46,7389.20"/>
    </edge>
    <edge id=":1157640667_0" function="internal">
        <lane id=":1157640667_0_0" index="0" allow="private emergency authority army vip passenger hov taxi bus coach delivery truck trailer motorcycle evehicle custom1 custom2" speed="30.56" length="0.26" shape="23624.63,8595.25 23624.82,8595.17"/>
        <lane id=":1157640667_0_1" index="1" allow="private emergency authority army vip passenger hov taxi bus coach delivery truck trailer motorcycle evehicle custom1 custom2" speed="30.56" length="0.26" shape="23625.83,8598.21 23626.11,8598.10"/>
    </edge>
    <edge id=":1157640673_0" function="internal">
        <lane id=":1157640673_0_0" index="0" allow="private emergency authority army vip passenger hov taxi bus coach delivery truck trailer motorcycle evehicle custom1 custom2" speed="33.61" length="0.28" shape="19713.92,8225.82 19714.15,8225.92"/>
        <lane id=":1157640673_0_1" index="1" allow="private emergency authority army vip passenger hov taxi bus coach delivery truck trailer motorcycle evehicle custom1 custom2" speed="33.61" length="0.28" shape="19712.71,8228.78 19713.00,8228.90"/>
    </edge>
    <edge id=":1157659192_0" function="internal">
        <lane id=":1157659192_0_0" index="0" allow="private emergency authority army vip passenger hov taxi bus coach delivery truck trailer motorcycle evehicle custom1 custom2" speed="25.00" length="0.28" shape="16361.51,7397.05 16361.27,7397.12"/>
        <lane id=":1157659192_0_1" index="1" allow="private emergency authority army vip passenger hov taxi bus coach delivery truck trailer motorcycle evehicle custom1 custom2" speed="25.00" length="0.28" shape="16360.71,7393.96 16360.41,7394.04"/>
    </edge>
    <edge id=":1162994671_0" function="internal">
        <lane id=":1162994671_0_0" index="0" allow="private emergency authority army vip passenger hov taxi bus coach delivery truck trailer motorcycle evehicle custom1 custom2" speed="27.78" length="8.18" shape="24443.54,8384.56 24445.91,8384.09 24447.47,8383.41 24449.03,8382.74 24451.41,8382.33"/>
        <lane id=":1162994671_0_1" index="1" allow="private emergency authority army vip passenger hov taxi bus coach delivery truck trailer motorcycle evehicle custom1 custom2" speed="27.78" length="8.18" shape="24443.54,8384.56 24445.94,8384.59 24447.58,8385.00 24449.21,8385.44 24451.62,8385.53"/>
        <lane id=":1162994671_0_2" index="2" allow="private emergency authority army vip passenger hov taxi bus coach delivery truck trailer motorcycle evehicle custom1 custom2" speed="27.78" length="8.18" shape="24443.83,8387.75 24446.21,8387.78 24447.83,8388.19 24449.45,8388.63 24451.83,8388.72"/>
    </edge>
    <edge id=":1163001911_0" function="internal">
        <lane id=":1163001911_0_0" index="0" allow="private emergency authority army vip passenger hov taxi bus coach delivery truck trailer motorcycle evehicle custom1 custom2" speed="33.33" length="8.14" shape="25791.98,8239.34 25789.89,8240.54 25788.64,8241.68 25787.38,8242.80 25785.26,8243.93"/>
        <lane id=":1163001911_0_1" index="1" allow="private emergency authority army vip passenger hov taxi bus coach delivery truck trailer motorcycle evehicle custom1 custom2" speed="33.33" length="8.14" shape="25790.69,8236.41 25788.63,8237.60 25787.39,8238.73 25786.15,8239.84 25784.06,8240.96"/>
    </edge>
    <edge id=":1163001937_0" function="internal">
        <lane id=":1163001937_0_0" index="0" allow="private emergency authority army vip passenger hov taxi bus coach delivery truck trailer motorcycle evehicle custom1 custom2" speed="33.61" length="0.28" shape="26835.38,7485.92 26835.58,7485.65"/>
        <lane id=":1163001937_0_1" index="1" allow="private emergency authority army vip passenger hov taxi bus coach delivery truck trailer motorcycle evehicle custom1 custom2" speed="33.61" length="0.28" shape="26837.99,7487.78 26838.15,7487.56"/>
        <lane id=":1163001937_0_2" index="2" allow="private emergency authority army vip passenger hov taxi bus coach delivery truck trailer motorcycle evehicle custom1 custom2" speed="33.61" length="0.28" shape="26840.59,7489.64 26840.72,7489.46"/>
    </edge>
    <edge id=":1165301882_0" function="internal">
        <lane id=":1165301882_0_0" index="0" allow="private emergency authority army vip passenger hov taxi bus coach delivery truck trailer motorcycle evehicle custom1 custom2" speed="33.33" length="8.15" shape="27617.40,6410.77 27616.20,6412.88 27615.70,6414.51 27615.18,6416.12 27613.93,6418.19"/>
        <lane id=":1165301882_0_1" index="1" allow="private emergency authority army vip passenger hov taxi bus coach delivery truck trailer motorcycle evehicle custom1 custom2" speed="33.33" length="8.15" shape="27614.80,6408.91 27613.61,6411.00 27613.12,6412.61 27612.61,6414.21 27611.38,6416.26"/>
        <lane id=":1165301882_0_2" index="2" allow="private emergency authority army vip passenger hov taxi bus coach delivery truck trailer motorcycle evehicle custom1 custom2" speed="33.33" length="8.15" shape="27612.19,6407.05 27611.03,6409.11 27610.54,6410.71 27610.05,6412.30 27608.83,6414.33"/>
    </edge>
    <edge id=":1166663680_0" function="internal">
        <lane id=":1166663680_0_0" index="0" allow="private emergency authority army vip passenger hov taxi bus coach delivery truck trailer motorcycle evehicle custom1 custom2" speed="33.33" length="8.21" shape="28223.36,5527.76 28224.57,5525.68 28225.06,5524.06 28225.56,5522.44 28226.76,5520.36"/>
        <lane id=":1166663680_0_1" index="1" allow="private emergency authority army vip passenger hov taxi bus coach delivery truck trailer motorcycle evehicle custom1 custom2" speed="33.33" length="8.21" shape="28225.95,5529.65 28227.16,5527.56 28227.65,5525.94 28228.15,5524.32 28229.35,5522.23"/>
        <lane id=":1166663680_0_2" index="2" allow="private emergency authority army vip passenger hov taxi bus coach delivery truck trailer motorcycle evehicle custom1 custom2" speed="33.33" length="8.21" shape="28228.53,5531.53 28229.74,5529.44 28230.24,5527.82 28230.74,5526.20 28231.95,5524.10"/>
    </edge>
    <edge id=":1166663688_0" function="internal">
        <lane id=":1166663688_0_0" index="0" allow="private emergency authority army vip passenger hov taxi bus coach delivery truck trailer motorcycle evehicle custom1 custom2" speed="33.33" length="8.20" shape="28114.70,5674.16 28115.90,5672.05 28116.39,5670.42 28116.89,5668.80 28118.11,5666.71"/>
        <lane id=":1166663688_0_1" index="1" allow="private emergency authority army vip passenger hov taxi bus coach delivery truck trailer motorcycle evehicle custom1 custom2" speed="33.33" length="8.20" shape="28117.31,5676.02 28118.50,5673.92 28118.99,5672.30 28119.48,5670.68 28120.69,5668.59"/>
        <lane id=":1166663688_0_2" index="2" allow="private emergency authority army vip passenger hov taxi bus coach delivery truck trailer motorcycle evehicle custom1 custom2" speed="33.33" length="8.20" shape="28119.91,5677.88 28121.10,5675.79 28121.58,5674.17 28122.07,5672.56 28123.28,5670.48"/>
        <lane id=":1166663688_0_3" index="3" allow="private emergency authority army vip passenger hov taxi bus coach delivery truck trailer motorcycle evehicle custom1 custom2" speed="33.33" length="8.20" shape="28122.51,5679.74 28123.69,5677.66 28124.18,5676.04 28124.67,5674.43 28125.86,5672.36"/>
    </edge>
    <edge id=":1166663733_0" function="internal">
        <lane id=":1166663733_0_0" index="0" allow="private emergency authority army vip passenger hov taxi bus coach delivery truck trailer motorcycle evehicle custom1 custom2" speed="36.39" length="8.63" shape="27872.35,6013.28 27873.35,6010.96 27873.34,6009.06 27873.34,6007.16 27874.37,6004.86"/>
        <lane id=":1166663733_0_1" index="1" allow="private emergency authority army vip passenger hov taxi bus coach delivery truck trailer motorcycle evehicle custom1 custom2" speed="36.39" length="8.63" shape="27874.97,6015.11 27875.97,6012.80 27875.96,6010.90 27875.95,6009.01 27876.98,6006.72"/>
        <lane id=":1166663733_0_2" index="2" allow="private emergency authority army vip passenger hov taxi bus coach delivery truck trailer motorcycle evehicle custom1 custom2" speed="36.39" length="8.63" shape="27877.60,6016.94 27878.59,6014.64 27878.57,6012.75 27878.56,6010.86 27879.58,6008.58"/>
        <lane id=":1166663733_0_3" index="3" allow="private emergency authority army vip passenger hov taxi bus coach delivery truck trailer motorcycle evehicle custom1 custom2" speed="36.39" length="8.63" shape="27877.60,6016.94 27882.18,6010.44"/>
        <lane id=":1166663733_0_4" index="4" allow="private emergency authority army vip passenger hov taxi bus coach delivery truck trailer motorcycle evehicle custom1 custom2" speed="36.39" length="8.63" shape="27877.60,6016.94 27879.40,6015.22 27881.18,6014.61 27882.96,6014.00 27884.79,6012.30"/>
    </edge>
    <edge id=":1166671419_0" function="internal">
        <lane id=":1166671419_0_0" index="0" allow="private emergency authority army vip passenger hov taxi bus coach delivery truck trailer motorcycle evehicle custom1 custom2" speed="36.39" length="0.30" shape="28387.28,5298.24 28387.45,5298.01"/>
        <lane id=":1166671419_0_1" index="1" allow="private emergency authority army vip passenger hov taxi bus coach delivery truck trailer motorcycle evehicle custom1 custom2" speed="36.39" length="0.30" shape="28389.88,5300.12 28390.05,5299.87"/>
        <lane id=":1166671419_0_2" index="2" allow="private emergency authority army vip passenger hov taxi bus coach delivery truck trailer motorcycle evehicle custom1 custom2" speed="36.39" length="0.30" shape="28392.47,5301.99 28392.65,5301.73"/>
    </edge>
    <edge id=":1215909480_0" function="internal">
        <lane id=":1215909480_0_0" index="0" allow="private emergency authority army vip passenger hov taxi bus coach delivery truck trailer motorcycle evehicle custom1 custom2" speed="27.78" length="0.10" shape="14783.61,6657.30 14783.53,6657.27"/>
        <lane id=":1215909480_0_1" index="1" allow="private emergency authority army vip passenger hov taxi bus coach delivery truck trailer motorcycle evehicle custom1 custom2" speed="27.78" length="0.10" shape="14784.75,6654.31 14784.83,6654.35"/>
    </edge>
    <edge id=":1223181165_0" function="internal">
        <lane id=":1223181165_0_0" index="0" allow="private emergency authority army vip passenger hov taxi bus coach delivery truck trailer motorcycle evehicle custom1 custom2" speed="30.56" length="8.21" shape="1120.57,45.64 1122.98,45.51 1124.61,45.04 1126.24,44.58 1128.65,44.46"/>
        <lane id=":1223181165_0_1" index="1" allow="private emergency authority army vip passenger hov taxi bus coach delivery truck trailer motorcycle evehicle custom1 custom2" speed="30.56" length="8.21" shape="1120.57,45.64 1122.95,46.01 1124.52,46.64 1126.09,47.28 1128.48,47.66"/>
        <lane id=":1223181165_0_2" index="2" allow="private emergency authority army vip passenger hov taxi bus coach delivery truck trailer motorcycle evehicle custom1 custom2" speed="30.56" length="8.21" shape="1120.41,48.83 1122.78,49.20 1124.35,49.84 1125.92,50.47 1128.30,50.85"/>
    </edge>
    <edge id=":1225188550_0" function="internal">
        <lane id=":1225188550_0_0" index="0" allow="private emergency authority army vip passenger hov taxi bus coach delivery truck trailer motorcycle evehicle custom1 custom2" speed="30.56" length="0.28" shape="6223.39,510.12 6223.10,509.99"/>
        <lane id=":1225188550_0_1" index="1" allow="private emergency authority army vip passenger hov taxi bus coach delivery truck trailer motorcycle evehicle custom1 custom2" speed="30.56" length="0.28" shape="6224.66,507.19 6224.44,507.08"/>
    </edge>
    <edge id=":1225188582_0" function="internal">
        <lane id=":1225188582_0_0" index="0" allow="private emergency authority army vip passenger hov taxi bus coach delivery truck trailer motorcycle evehicle custom1 custom2" speed="27.78" length="8.20" shape="6203.24,500.88 6200.95,500.10 6199.26,499.92 6197.57,499.73 6195.30,498.92"/>
        <lane id=":1225188582_0_1" index="1" allow="private emergency authority army vip passenger hov taxi bus coach delivery truck trailer motorcycle evehicle custom1 custom2" speed="27.78" length="8.20" shape="6203.24,500.88 6201.17,499.65 6199.95,498.48 6198.73,497.30 6196.68,496.04"/>
        <lane id=":1225188582_0_2" index="2" allow="private emergency authority army vip passenger hov taxi bus coach delivery truck trailer motorcycle evehicle custom1 custom2" speed="27.78" length="8.20" shape="6204.58,497.97 6202.52,496.75 6201.31,495.58 6200.10,494.40 6198.06,493.15"/>
    </edge>
    <edge id=":1225518049_0" function="internal">
        <lane id=":1225518049_0_0" index="0" allow="private emergency authority army vip passenger hov taxi bus coach delivery truck trailer motorcycle evehicle custom1 custom2" speed="30.56" length="0.29" shape="20144.40,8390.50 20144.69,8390.61"/>
        <lane id=":1225518049_0_1" index="1" allow="private emergency authority army vip passenger hov taxi bus coach delivery truck trailer motorcycle evehicle custom1 custom2" speed="30.56" length="0.29" shape="20143.27,8393.49 20143.52,8393.59"/>
    </edge>
    <edge id=":1229573566_0" function="internal">
        <lane id=":1229573566_0_0" index="0" allow="private emergency authority army vip passenger hov taxi bus coach delivery truck trailer motorcycle evehicle custom1 custom2" speed="33.33" length="8.20" shape="8895.56,3033.77 8897.95,3033.61 8899.56,3033.11 8901.17,3032.60 8903.56,3032.40"/>
        <lane id=":1229573566_0_1" index="1" allow="private emergency authority army vip passenger hov taxi bus coach delivery truck trailer motorcycle evehicle custom1 custom2" speed="33.33" length="8.20" shape="8895.56,3033.77 8897.94,3034.11 8899.52,3034.71 8901.10,3035.30 8903.49,3035.60"/>
        <lane id=":1229573566_0_2" index="2" allow="private emergency authority army vip passenger hov taxi bus coach delivery truck trailer motorcycle evehicle custom1 custom2" speed="33.33" length="8.20" shape="8895.44,3036.97 8897.84,3037.30 8899.43,3037.91 8901.02,3038.50 8903.41,3038.80"/>
    </edge>
    <edge id=":1240214069_0" function="internal">
        <lane id=":1240214069_0_0" index="0" allow="private emergency authority army vip passenger hov taxi bus coach delivery truck trailer motorcycle evehicle custom1 custom2" speed="33.33" length="8.19" shape="1343758.80,1511106.26 1343761.21,1511105.87 1343762.81,1511105.23 1343764.41,1511104.61 1343766.83,1511104.28"/>
        <lane id=":1240214069_0_1" index="1" allow="private emergency authority army vip passenger hov taxi bus coach delivery truck trailer motorcycle evehicle custom1 custom2" speed="33.33" length="8.19" shape="1343758.80,1511106.26 1343761.22,1511106.37 1343762.86,1511106.83 1343764.51,1511107.31 1343766.93,1511107.48"/>
        <lane id=":1240214069_0_2" index="2" allow="private emergency authority army vip passenger hov taxi bus coach delivery truck trailer motorcycle evehicle custom1 custom2" speed="33.33" length="8.19" shape="1343758.99,1511109.45 1343761.39,1511109.56 1343763.01,1511110.03 1343764.64,1511110.51 1343767.04,1511110.68"/>
        <lane id=":1240214069_0_3" index="3" allow="private emergency authority army vip passenger hov taxi bus coach delivery truck trailer motorcycle evehicle custom1 custom2" speed="33.33" length="8.19" shape="1343759.18,1511112.65 1343761.56,1511112.76 1343763.16,1511113.22 1343764.77,1511113.71 1343767.15,1511113.88"/>
        <lane id=":1240214069_0_4" index="4" allow="private emergency authority army vip passenger hov taxi bus coach delivery truck trailer motorcycle evehicle custom1 custom2" speed="33.33" length="8.19" shape="1343759.37,1511115.84 1343761.73,1511115.95 1343763.31,1511116.42 1343764.90,1511116.90 1343767.26,1511117.07"/>
    </edge>
    <edge id=":1364815595_0" function="internal">
        <lane id=":1364815595_0_0" index="0" allow="private emergency authority army vip passenger hov taxi bus coach delivery truck trailer motorcycle evehicle custom1 custom2" speed="36.39" length="0.28" shape="1286250.24,1470506.42 1286250.46,1470506.52"/>
        <lane id=":1364815595_0_1" index="1" allow="private emergency authority army vip passenger hov taxi bus coach delivery truck trailer motorcycle evehicle custom1 custom2" speed="36.39" length="0.28" shape="1286248.89,1470509.32 1286249.18,1470509.45"/>
    </edge>
    <edge id=":1364815618_0" function="internal">
        <lane id=":1364815618_0_0" index="0" allow="private emergency authority army vip passenger hov taxi bus coach delivery truck trailer motorcycle evehicle custom1 custom2" speed="22.50" length="0.29" shape="1286239.24,1470525.95 1286238.93,1470525.81"/>
        <lane id=":1364815618_0_1" index="1" allow="private emergency authority army vip passenger hov taxi bus coach delivery truck trailer motorcycle evehicle custom1 custom2" speed="22.50" length="0.29" shape="1286240.49,1470523.00 1286240.22,1470522.88"/>
        <lane id=":1364815618_0_2" index="2" allow="private emergency authority army vip passenger hov taxi bus coach delivery truck trailer motorcycle evehicle custom1 custom2" speed="22.50" length="0.29" shape="1286241.73,1470520.05 1286241.51,1470519.95"/>
    </edge>
    <edge id=":1504202289_0" function="internal">
        <lane id=":1504202289_0_0" index="0" allow="private emergency authority army vip passenger hov taxi bus coach delivery truck trailer motorcycle evehicle custom1 custom2" speed="13.89" length="0.25" shape="1362023.79,1534757.10 1362023.53,1534756.95"/>
        <lane id=":1504202289_0_1" index="1" allow="private emergency authority army vip passenger hov taxi bus coach delivery truck trailer motorcycle evehicle custom1 custom2" speed="13.89" length="0.25" shape="1362025.30,1534754.28 1362025.13,1534754.18"/>
    </edge>
    <edge id=":1504202297_0" function="internal">
        <lane id=":1504202297_0_0" index="0" allow="private emergency authority army vip passenger hov taxi bus coach delivery truck trailer motorcycle evehicle custom1 custom2" speed="25.00" length="0.21" shape="1362204.94,1534845.14 1362204.65,1534845.03"/>
        <lane id=":1504202297_0_1" index="1" allow="private emergency authority army vip passenger hov taxi bus coach delivery truck trailer motorcycle evehicle custom1 custom2" speed="25.00" length="0.21" shape="1362206.04,1534842.14 1362205.95,1534842.10"/>
    </edge>
    <edge id=":158699084_0" function="internal">
        <lane id=":158699084_0_0" index="0" allow="private emergency authority army vip passenger hov taxi bus coach delivery truck trailer motorcycle evehicle custom1 custom2" speed="36.39" length="0.26" shape="1287056.71,1471021.99 1287056.93,1471022.23"/>
        <lane id=":158699084_0_1" index="1" allow="private emergency authority army vip passenger hov taxi bus coach delivery truck trailer motorcycle evehicle custom1 custom2" speed="36.39" length="0.26" shape="1287054.38,1471024.19 1287054.51,1471024.32"/>
    </edge>
    <edge id=":1647870750_0" function="internal">
        <lane id=":1647870750_0_0" index="0" allow="private emergency authority army vip passenger hov taxi bus coach delivery truck trailer motorcycle evehicle custom1 custom2" speed="33.33" length="8.14" shape="281.43,0.58 283.79,0.07 285.34,-0.63 286.89,-1.31 289.27,-1.72"/>
        <lane id=":1647870750_0_1" index="1" allow="private emergency authority army vip passenger hov taxi bus coach delivery truck trailer motorcycle evehicle custom1 custom2" speed="33.33" length="8.14" shape="281.43,0.58 283.82,0.57 285.45,0.96 287.09,1.39 289.49,1.47"/>